4133
     RDKit          3D

 11 11  0  0  0  0  0  0  0  0999 V2000
    2.1225    0.8667   -0.3113 O   0  0  0  0  0  0  0  0  0  0  0  0
   -0.5276   -2.2538   -0.2299 O   0  0  0  0  0  0  0  0  0  0  0  0
    1.8870   -1.2425    0.5802 O   0  0  0  0  0  0  0  0  0  0  0  0
   -0.0378    0.0737    0.0824 C   0  0  0  0  0  0  0  0  0  0  0  0
   -0.9503   -0.9641   -0.1065 C   0  0  0  0  0  0  0  0  0  0  0  0
   -0.4910    1.3872    0.2058 C   0  0  0  0  0  0  0  0  0  0  0  0
   -2.3161   -0.6885   -0.1722 C   0  0  0  0  0  0  0  0  0  0  0  0
   -1.8568    1.6627    0.1401 C   0  0  0  0  0  0  0  0  0  0  0  0
   -2.7694    0.6249   -0.0490 C   0  0  0  0  0  0  0  0  0  0  0  0
    1.3923   -0.1918    0.1539 C   0  0  0  0  0  0  0  0  0  0  0  0
    3.5470    0.7256   -0.2935 C   0  0  0  0  0  0  0  0  0  0  0  0
  1 10  1  0
  1 11  1  0
  2  5  1  0
  3 10  2  0
  4  5  2  0
  4  6  1  0
  4 10  1  0
  5  7  1  0
  6  8  2  0
  7  9  2  0
  8  9  1  0
M  END
